topology_creation/OpenDSS_data/OBJECT_LV_6.dss
new load.LOADLVN_6_1 phases=3 bus1=LVN_6_b12.1.2.3 kV=0.4 model=2 conn=wye kW=1 pf=0.98 daily=Shape_538 vminpu=0.3 vmaxpu=1.5 
new load.LOADLVN_6_2 phases=3 bus1=LVN_6_b14.1.2.3 kV=0.4 model=2 conn=wye kW=1 pf=0.98 daily=Shape_539 vminpu=0.3 vmaxpu=1.5 
new load.LOADLVN_6_3 phases=3 bus1=LVN_6_b33.1.2.3 kV=0.4 model=2 conn=wye kW=1 pf=0.98 daily=Shape_540 vminpu=0.3 vmaxpu=1.5 
new load.LOADLVN_6_4 phases=3 bus1=LVN_6_b35.1.2.3 kV=0.4 model=2 conn=wye kW=1 pf=0.98 daily=Shape_541 vminpu=0.3 vmaxpu=1.5 
new load.LOADLVN_6_5 phases=3 bus1=LVN_6_b39.1.2.3 kV=0.4 model=2 conn=wye kW=1 pf=0.98 daily=Shape_542 vminpu=0.3 vmaxpu=1.5 
new load.LOADLVN_6_6 phases=3 bus1=LVN_6_b53.1.2.3 kV=0.4 model=2 conn=wye kW=1 pf=0.98 daily=Shape_543 vminpu=0.3 vmaxpu=1.5 
new load.LOADLVN_6_7 phases=3 bus1=LVN_6_b84.1.2.3 kV=0.4 model=2 conn=wye kW=1 pf=0.98 daily=Shape_544 vminpu=0.3 vmaxpu=1.5 
new load.LOADLVN_6_8 phases=3 bus1=LVN_6_b87.1.2.3 kV=0.4 model=2 conn=wye kW=1 pf=0.98 daily=Shape_545 vminpu=0.3 vmaxpu=1.5 
new load.LOADLVN_6_9 phases=3 bus1=LVN_6_b93.1.2.3 kV=0.4 model=2 conn=wye kW=1 pf=0.98 daily=Shape_546 vminpu=0.3 vmaxpu=1.5 
new load.LOADLVN_6_10 phases=3 bus1=LVN_6_b104.1.2.3 kV=0.4 model=2 conn=wye kW=1 pf=0.98 daily=Shape_547 vminpu=0.3 vmaxpu=1.5 
new load.LOADLVN_6_11 phases=3 bus1=LVN_6_b112.1.2.3 kV=0.4 model=2 conn=wye kW=1 pf=0.98 daily=Shape_548 vminpu=0.3 vmaxpu=1.5 
new load.LOADLVN_6_12 phases=3 bus1=LVN_6_b124.1.2.3 kV=0.4 model=2 conn=wye kW=1 pf=0.98 daily=Shape_549 vminpu=0.3 vmaxpu=1.5 
new load.LOADLVN_6_13 phases=3 bus1=LVN_6_b137.1.2.3 kV=0.4 model=2 conn=wye kW=1 pf=0.98 daily=Shape_550 vminpu=0.3 vmaxpu=1.5 
new load.LOADLVN_6_14 phases=3 bus1=LVN_6_b152.1.2.3 kV=0.4 model=2 conn=wye kW=1 pf=0.98 daily=Shape_551 vminpu=0.3 vmaxpu=1.5 
new load.LOADLVN_6_15 phases=3 bus1=LVN_6_b167.1.2.3 kV=0.4 model=2 conn=wye kW=1 pf=0.98 daily=Shape_552 vminpu=0.3 vmaxpu=1.5 
new load.LOADLVN_6_16 phases=3 bus1=LVN_6_b189.1.2.3 kV=0.4 model=2 conn=wye kW=1 pf=0.98 daily=Shape_553 vminpu=0.3 vmaxpu=1.5 
new load.LOADLVN_6_17 phases=3 bus1=LVN_6_b198.1.2.3 kV=0.4 model=2 conn=wye kW=1 pf=0.98 daily=Shape_554 vminpu=0.3 vmaxpu=1.5 
new load.LOADLVN_6_18 phases=3 bus1=LVN_6_b200.1.2.3 kV=0.4 model=2 conn=wye kW=1 pf=0.98 daily=Shape_555 vminpu=0.3 vmaxpu=1.5 
new load.LOADLVN_6_19 phases=3 bus1=LVN_6_b227.1.2.3 kV=0.4 model=2 conn=wye kW=1 pf=0.98 daily=Shape_556 vminpu=0.3 vmaxpu=1.5 
new load.LOADLVN_6_20 phases=3 bus1=LVN_6_b238.1.2.3 kV=0.4 model=2 conn=wye kW=1 pf=0.98 daily=Shape_557 vminpu=0.3 vmaxpu=1.5 
new load.LOADLVN_6_21 phases=3 bus1=LVN_6_b261.1.2.3 kV=0.4 model=2 conn=wye kW=1 pf=0.98 daily=Shape_558 vminpu=0.3 vmaxpu=1.5 
new load.LOADLVN_6_22 phases=3 bus1=LVN_6_b267.1.2.3 kV=0.4 model=2 conn=wye kW=1 pf=0.98 daily=Shape_559 vminpu=0.3 vmaxpu=1.5 
new load.LOADLVN_6_23 phases=3 bus1=LVN_6_b278.1.2.3 kV=0.4 model=2 conn=wye kW=1 pf=0.98 daily=Shape_560 vminpu=0.3 vmaxpu=1.5 
new load.LOADLVN_6_24 phases=3 bus1=LVN_6_b281.1.2.3 kV=0.4 model=2 conn=wye kW=1 pf=0.98 daily=Shape_561 vminpu=0.3 vmaxpu=1.5 
new load.LOADLVN_6_25 phases=3 bus1=LVN_6_b287.1.2.3 kV=0.4 model=2 conn=wye kW=1 pf=0.98 daily=Shape_562 vminpu=0.3 vmaxpu=1.5 
new load.LOADLVN_6_26 phases=3 bus1=LVN_6_b295.1.2.3 kV=0.4 model=2 conn=wye kW=1 pf=0.98 daily=Shape_563 vminpu=0.3 vmaxpu=1.5 
new load.LOADLVN_6_27 phases=3 bus1=LVN_6_b300.1.2.3 kV=0.4 model=2 conn=wye kW=1 pf=0.98 daily=Shape_564 vminpu=0.3 vmaxpu=1.5 
new load.LOADLVN_6_28 phases=3 bus1=LVN_6_b354.1.2.3 kV=0.4 model=2 conn=wye kW=1 pf=0.98 daily=Shape_565 vminpu=0.3 vmaxpu=1.5 
new load.LOADLVN_6_29 phases=3 bus1=LVN_6_b363.1.2.3 kV=0.4 model=2 conn=wye kW=1 pf=0.98 daily=Shape_566 vminpu=0.3 vmaxpu=1.5 
new load.LOADLVN_6_30 phases=3 bus1=LVN_6_b368.1.2.3 kV=0.4 model=2 conn=wye kW=1 pf=0.98 daily=Shape_567 vminpu=0.3 vmaxpu=1.5 
new load.LOADLVN_6_31 phases=3 bus1=LVN_6_b379.1.2.3 kV=0.4 model=2 conn=wye kW=1 pf=0.98 daily=Shape_568 vminpu=0.3 vmaxpu=1.5 
new load.LOADLVN_6_32 phases=3 bus1=LVN_6_b388.1.2.3 kV=0.4 model=2 conn=wye kW=1 pf=0.98 daily=Shape_569 vminpu=0.3 vmaxpu=1.5 
new load.LOADLVN_6_33 phases=3 bus1=LVN_6_b390.1.2.3 kV=0.4 model=2 conn=wye kW=1 pf=0.98 daily=Shape_570 vminpu=0.3 vmaxpu=1.5 
new load.LOADLVN_6_34 phases=3 bus1=LVN_6_b443.1.2.3 kV=0.4 model=2 conn=wye kW=1 pf=0.98 daily=Shape_571 vminpu=0.3 vmaxpu=1.5 
new load.LOADLVN_6_35 phases=3 bus1=LVN_6_b450.1.2.3 kV=0.4 model=2 conn=wye kW=1 pf=0.98 daily=Shape_572 vminpu=0.3 vmaxpu=1.5 
new load.LOADLVN_6_36 phases=3 bus1=LVN_6_b457.1.2.3 kV=0.4 model=2 conn=wye kW=1 pf=0.98 daily=Shape_573 vminpu=0.3 vmaxpu=1.5 
new load.LOADLVN_6_37 phases=3 bus1=LVN_6_b459.1.2.3 kV=0.4 model=2 conn=wye kW=1 pf=0.98 daily=Shape_574 vminpu=0.3 vmaxpu=1.5 
new load.LOADLVN_6_38 phases=3 bus1=LVN_6_b489.1.2.3 kV=0.4 model=2 conn=wye kW=1 pf=0.98 daily=Shape_575 vminpu=0.3 vmaxpu=1.5 
new load.LOADLVN_6_39 phases=3 bus1=LVN_6_b494.1.2.3 kV=0.4 model=2 conn=wye kW=1 pf=0.98 daily=Shape_576 vminpu=0.3 vmaxpu=1.5 
new load.LOADLVN_6_40 phases=3 bus1=LVN_6_b499.1.2.3 kV=0.4 model=2 conn=wye kW=1 pf=0.98 daily=Shape_577 vminpu=0.3 vmaxpu=1.5 
new load.LOADLVN_6_41 phases=3 bus1=LVN_6_b510.1.2.3 kV=0.4 model=2 conn=wye kW=1 pf=0.98 daily=Shape_578 vminpu=0.3 vmaxpu=1.5 
new load.LOADLVN_6_42 phases=3 bus1=LVN_6_b517.1.2.3 kV=0.4 model=2 conn=wye kW=1 pf=0.98 daily=Shape_579 vminpu=0.3 vmaxpu=1.5 
new load.LOADLVN_6_43 phases=3 bus1=LVN_6_b527.1.2.3 kV=0.4 model=2 conn=wye kW=1 pf=0.98 daily=Shape_580 vminpu=0.3 vmaxpu=1.5 
new load.LOADLVN_6_44 phases=3 bus1=LVN_6_b536.1.2.3 kV=0.4 model=2 conn=wye kW=1 pf=0.98 daily=Shape_581 vminpu=0.3 vmaxpu=1.5 
new load.LOADLVN_6_45 phases=3 bus1=LVN_6_b538.1.2.3 kV=0.4 model=2 conn=wye kW=1 pf=0.98 daily=Shape_582 vminpu=0.3 vmaxpu=1.5 
new load.LOADLVN_6_46 phases=3 bus1=LVN_6_b552.1.2.3 kV=0.4 model=2 conn=wye kW=1 pf=0.98 daily=Shape_583 vminpu=0.3 vmaxpu=1.5 
new load.LOADLVN_6_47 phases=3 bus1=LVN_6_b560.1.2.3 kV=0.4 model=2 conn=wye kW=1 pf=0.98 daily=Shape_584 vminpu=0.3 vmaxpu=1.5 
new load.LOADLVN_6_48 phases=3 bus1=LVN_6_b569.1.2.3 kV=0.4 model=2 conn=wye kW=1 pf=0.98 daily=Shape_585 vminpu=0.3 vmaxpu=1.5 
new load.LOADLVN_6_49 phases=3 bus1=LVN_6_b571.1.2.3 kV=0.4 model=2 conn=wye kW=1 pf=0.98 daily=Shape_586 vminpu=0.3 vmaxpu=1.5 
new load.LOADLVN_6_50 phases=3 bus1=LVN_6_b590.1.2.3 kV=0.4 model=2 conn=wye kW=1 pf=0.98 daily=Shape_587 vminpu=0.3 vmaxpu=1.5 
new load.LOADLVN_6_51 phases=3 bus1=LVN_6_b592.1.2.3 kV=0.4 model=2 conn=wye kW=1 pf=0.98 daily=Shape_588 vminpu=0.3 vmaxpu=1.5 
new load.LOADLVN_6_52 phases=3 bus1=LVN_6_b594.1.2.3 kV=0.4 model=2 conn=wye kW=1 pf=0.98 daily=Shape_589 vminpu=0.3 vmaxpu=1.5 
new load.LOADLVN_6_53 phases=3 bus1=LVN_6_b615.1.2.3 kV=0.4 model=2 conn=wye kW=1 pf=0.98 daily=Shape_590 vminpu=0.3 vmaxpu=1.5 
new load.LOADLVN_6_54 phases=3 bus1=LVN_6_b616.1.2.3 kV=0.4 model=2 conn=wye kW=1 pf=0.98 daily=Shape_591 vminpu=0.3 vmaxpu=1.5 
new load.LOADLVN_6_55 phases=3 bus1=LVN_6_b642.1.2.3 kV=0.4 model=2 conn=wye kW=1 pf=0.98 daily=Shape_592 vminpu=0.3 vmaxpu=1.5 
new load.LOADLVN_6_56 phases=3 bus1=LVN_6_b644.1.2.3 kV=0.4 model=2 conn=wye kW=1 pf=0.98 daily=Shape_593 vminpu=0.3 vmaxpu=1.5 
new load.LOADLVN_6_57 phases=3 bus1=LVN_6_b653.1.2.3 kV=0.4 model=2 conn=wye kW=1 pf=0.98 daily=Shape_594 vminpu=0.3 vmaxpu=1.5 
new load.LOADLVN_6_58 phases=3 bus1=LVN_6_b656.1.2.3 kV=0.4 model=2 conn=wye kW=1 pf=0.98 daily=Shape_595 vminpu=0.3 vmaxpu=1.5 
new load.LOADLVN_6_59 phases=3 bus1=LVN_6_b658.1.2.3 kV=0.4 model=2 conn=wye kW=1 pf=0.98 daily=Shape_596 vminpu=0.3 vmaxpu=1.5 
new load.LOADLVN_6_60 phases=3 bus1=LVN_6_b664.1.2.3 kV=0.4 model=2 conn=wye kW=1 pf=0.98 daily=Shape_597 vminpu=0.3 vmaxpu=1.5 
new load.LOADLVN_6_61 phases=3 bus1=LVN_6_b672.1.2.3 kV=0.4 model=2 conn=wye kW=1 pf=0.98 daily=Shape_598 vminpu=0.3 vmaxpu=1.5 
new load.LOADLVN_6_62 phases=3 bus1=LVN_6_b694.1.2.3 kV=0.4 model=2 conn=wye kW=1 pf=0.98 daily=Shape_599 vminpu=0.3 vmaxpu=1.5 
new load.LOADLVN_6_63 phases=3 bus1=LVN_6_b717.1.2.3 kV=0.4 model=2 conn=wye kW=1 pf=0.98 daily=Shape_600 vminpu=0.3 vmaxpu=1.5 
new load.LOADLVN_6_64 phases=3 bus1=LVN_6_b737.1.2.3 kV=0.4 model=2 conn=wye kW=1 pf=0.98 daily=Shape_601 vminpu=0.3 vmaxpu=1.5 
new load.LOADLVN_6_65 phases=3 bus1=LVN_6_b773.1.2.3 kV=0.4 model=2 conn=wye kW=1 pf=0.98 daily=Shape_602 vminpu=0.3 vmaxpu=1.5 
new load.LOADLVN_6_66 phases=3 bus1=LVN_6_b775.1.2.3 kV=0.4 model=2 conn=wye kW=1 pf=0.98 daily=Shape_603 vminpu=0.3 vmaxpu=1.5 
new load.LOADLVN_6_67 phases=3 bus1=LVN_6_b777.1.2.3 kV=0.4 model=2 conn=wye kW=1 pf=0.98 daily=Shape_604 vminpu=0.3 vmaxpu=1.5 
new load.LOADLVN_6_68 phases=3 bus1=LVN_6_b786.1.2.3 kV=0.4 model=2 conn=wye kW=1 pf=0.98 daily=Shape_605 vminpu=0.3 vmaxpu=1.5 
new load.LOADLVN_6_69 phases=3 bus1=LVN_6_b795.1.2.3 kV=0.4 model=2 conn=wye kW=1 pf=0.98 daily=Shape_606 vminpu=0.3 vmaxpu=1.5 
new load.LOADLVN_6_70 phases=3 bus1=LVN_6_b797.1.2.3 kV=0.4 model=2 conn=wye kW=1 pf=0.98 daily=Shape_607 vminpu=0.3 vmaxpu=1.5 
